76922
  -OEChem-07212421543D

 14 13  0     0  0  0  0  0  0999 V2000
    3.4601    0.3783    0.1925 S   0  0  0  0  0  0  0  0  0  0  0  0
    0.7442    0.2032   -0.3070 N   0  0  0  0  0  0  0  0  0  0  0  0
   -1.3802   -1.0073   -0.2305 C   0  0  0  0  0  0  0  0  0  0  0  0
    0.1072   -1.0503    0.1042 C   0  0  0  0  0  0  0  0  0  0  0  0
   -2.0909    0.1098    0.4777 C   0  0  0  0  0  0  0  0  0  0  0  0
   -2.7371    1.1006   -0.1470 C   0  0  0  0  0  0  0  0  0  0  0  0
    1.8967    0.2657   -0.0899 C   0  0  0  0  0  0  0  0  0  0  0  0
   -1.8433   -1.9565    0.0633 H   0  0  0  0  0  0  0  0  0  0  0  0
   -1.5062   -0.9146   -1.3165 H   0  0  0  0  0  0  0  0  0  0  0  0
    0.5602   -1.9024   -0.4204 H   0  0  0  0  0  0  0  0  0  0  0  0
    0.2372   -1.2154    1.1830 H   0  0  0  0  0  0  0  0  0  0  0  0
   -2.0834    0.0963    1.5645 H   0  0  0  0  0  0  0  0  0  0  0  0
   -3.2363    1.8760    0.4236 H   0  0  0  0  0  0  0  0  0  0  0  0
   -2.7790    1.1574   -1.2290 H   0  0  0  0  0  0  0  0  0  0  0  0
  1  7  2  0  0  0  0
  2  4  1  0  0  0  0
  2  7  2  0  0  0  0
  3  4  1  0  0  0  0
  3  5  1  0  0  0  0
  3  8  1  0  0  0  0
  3  9  1  0  0  0  0
  4 10  1  0  0  0  0
  4 11  1  0  0  0  0
  5  6  2  0  0  0  0
  5 12  1  0  0  0  0
  6 13  1  0  0  0  0
  6 14  1  0  0  0  0
M  END
> <PUBCHEM_COMPOUND_CID>
76922

> <PUBCHEM_CONFORMER_RMSD>
0.4

> <PUBCHEM_CONFORMER_DIVERSEORDER>
1
50
5
45
32
2
35
39
34
38
18
19
23
46
12
40
51
15
41
44
27
21
11
29
31
47
43
13
49
42
20
48
6
3
7
25
37
4
16
33
9
8
36
10
24
30
28
14
17
26
22

> <PUBCHEM_MMFF94_PARTIAL_CHARGES>
10
1 -0.27
12 0.15
13 0.15
14 0.15
2 -0.55
3 0.14
4 0.25
5 -0.29
6 -0.3
7 0.57

> <PUBCHEM_EFFECTIVE_ROTOR_COUNT>
3

> <PUBCHEM_PHARMACOPHORE_FEATURES>
3
1 1 acceptor
1 2 acceptor
1 6 hydrophobe

> <PUBCHEM_HEAVY_ATOM_COUNT>
7

> <PUBCHEM_ATOM_DEF_STEREO_COUNT>
0

> <PUBCHEM_ATOM_UDEF_STEREO_COUNT>
0

> <PUBCHEM_BOND_DEF_STEREO_COUNT>
0

> <PUBCHEM_BOND_UDEF_STEREO_COUNT>
0

> <PUBCHEM_ISOTOPIC_ATOM_COUNT>
0

> <PUBCHEM_COMPONENT_COUNT>
1

> <PUBCHEM_CACTVS_TAUTO_COUNT>
1

> <PUBCHEM_CONFORMER_ID>
00012C7A00000001

> <PUBCHEM_MMFF94_ENERGY>
3.061

> <PUBCHEM_FEATURE_SELFOVERLAP>
15.228

> <PUBCHEM_SHAPE_FINGERPRINT>
12897270 3 10879996843549150642
12932764 1 17774724280937588054
14128692 85 10087627221860916619
14325111 11 18411138043486081138
14390081 3 18272651242326401721
20096714 4 18410579448735077455
21040471 1 18410017628094401895
29004967 10 14129051526258146606
528716 315 10303815418791680344
5460574 1 8646498409603761126

> <PUBCHEM_SHAPE_MULTIPOLES>
142.93
5.22
1.14
0.68
2.68
0.09
-0.03
-1.86
-0.31
-0.59
0.04
-0.03
-0.01
0.02

> <PUBCHEM_SHAPE_SELFOVERLAP>
251.178

> <PUBCHEM_SHAPE_VOLUME>
94

> <PUBCHEM_COORDINATE_TYPE>
2
5
10

$$$$
