6442566
  -OEChem-07242413243D

 52 52  0     0  0  0  0  0  0999 V2000
    2.2578   -2.9130    0.1024 O   0  0  0  0  0  0  0  0  0  0  0  0
    2.6487    1.8767    2.0344 O   0  0  0  0  0  0  0  0  0  0  0  0
    1.2064    3.8873    0.7680 O   0  0  0  0  0  0  0  0  0  0  0  0
    1.3727   -1.9055   -1.7969 N   0  0  0  0  0  0  0  0  0  0  0  0
   -1.1994   -2.2758    0.7145 C   0  0  0  0  0  0  0  0  0  0  0  0
   -2.0607   -2.1656    1.9770 C   0  0  0  0  0  0  0  0  0  0  0  0
   -0.6466   -3.6848    0.4761 C   0  0  0  0  0  0  0  0  0  0  0  0
   -2.6383   -0.7660    2.2003 C   0  0  0  0  0  0  0  0  0  0  0  0
    0.2020   -3.7685   -0.7929 C   0  0  0  0  0  0  0  0  0  0  0  0
   -3.5005   -0.3463    1.0442 C   0  0  0  0  0  0  0  0  0  0  0  0
    1.3908   -2.8281   -0.7647 C   0  0  0  0  0  0  0  0  0  0  0  0
   -4.1569    1.1832   -0.8395 C   0  0  0  0  0  0  0  0  0  0  0  0
   -3.2880    0.7615    0.3181 C   0  0  0  0  0  0  0  0  0  0  0  0
    2.4016   -0.9077   -1.9779 C   0  0  0  0  0  0  0  0  0  0  0  0
    2.0856    0.3643   -1.2456 C   0  0  0  0  0  0  0  0  0  0  0  0
   -3.3338    1.2331   -2.1262 C   0  0  0  0  0  0  0  0  0  0  0  0
   -4.7923    2.5437   -0.5546 C   0  0  0  0  0  0  0  0  0  0  0  0
    2.5161    0.5373    0.0699 C   0  0  0  0  0  0  0  0  0  0  0  0
    1.3619    1.3733   -1.8810 C   0  0  0  0  0  0  0  0  0  0  0  0
    2.2229    1.7195    0.7500 C   0  0  0  0  0  0  0  0  0  0  0  0
    1.0683    2.5552   -1.2008 C   0  0  0  0  0  0  0  0  0  0  0  0
    1.4989    2.7284    0.1146 C   0  0  0  0  0  0  0  0  0  0  0  0
    3.3827    0.7979    2.6105 C   0  0  0  0  0  0  0  0  0  0  0  0
   -1.7828   -1.9877   -0.1678 H   0  0  0  0  0  0  0  0  0  0  0  0
   -0.3745   -1.5581    0.7977 H   0  0  0  0  0  0  0  0  0  0  0  0
   -2.8794   -2.8946    1.9206 H   0  0  0  0  0  0  0  0  0  0  0  0
   -1.4571   -2.4401    2.8509 H   0  0  0  0  0  0  0  0  0  0  0  0
   -1.4748   -4.3991    0.4003 H   0  0  0  0  0  0  0  0  0  0  0  0
   -0.0421   -3.9836    1.3412 H   0  0  0  0  0  0  0  0  0  0  0  0
   -3.2473   -0.7680    3.1115 H   0  0  0  0  0  0  0  0  0  0  0  0
   -1.8207   -0.0533    2.3624 H   0  0  0  0  0  0  0  0  0  0  0  0
    0.5931   -4.7861   -0.9086 H   0  0  0  0  0  0  0  0  0  0  0  0
   -0.4287   -3.5731   -1.6675 H   0  0  0  0  0  0  0  0  0  0  0  0
   -4.3493   -0.9840    0.8091 H   0  0  0  0  0  0  0  0  0  0  0  0
   -4.9658    0.4556   -0.9838 H   0  0  0  0  0  0  0  0  0  0  0  0
   -2.4419    1.4010    0.5605 H   0  0  0  0  0  0  0  0  0  0  0  0
    0.5972   -1.9010   -2.4526 H   0  0  0  0  0  0  0  0  0  0  0  0
    2.4913   -0.7192   -3.0538 H   0  0  0  0  0  0  0  0  0  0  0  0
    3.3651   -1.3121   -1.6457 H   0  0  0  0  0  0  0  0  0  0  0  0
   -2.5189    1.9627   -2.0556 H   0  0  0  0  0  0  0  0  0  0  0  0
   -2.8907    0.2554   -2.3463 H   0  0  0  0  0  0  0  0  0  0  0  0
   -3.9631    1.5136   -2.9778 H   0  0  0  0  0  0  0  0  0  0  0  0
   -5.4445    2.8465   -1.3809 H   0  0  0  0  0  0  0  0  0  0  0  0
   -5.4015    2.5091    0.3555 H   0  0  0  0  0  0  0  0  0  0  0  0
   -4.0334    3.3233   -0.4224 H   0  0  0  0  0  0  0  0  0  0  0  0
    3.0777   -0.2782    0.5119 H   0  0  0  0  0  0  0  0  0  0  0  0
    1.0185    1.2494   -2.9046 H   0  0  0  0  0  0  0  0  0  0  0  0
    0.5020    3.3323   -1.7072 H   0  0  0  0  0  0  0  0  0  0  0  0
    0.6994    4.4666    0.1735 H   0  0  0  0  0  0  0  0  0  0  0  0
    3.6395    1.0933    3.6333 H   0  0  0  0  0  0  0  0  0  0  0  0
    4.3273    0.6251    2.0837 H   0  0  0  0  0  0  0  0  0  0  0  0
    2.7741   -0.1098    2.6862 H   0  0  0  0  0  0  0  0  0  0  0  0
  1 11  2  0  0  0  0
  2 20  1  0  0  0  0
  2 23  1  0  0  0  0
  3 22  1  0  0  0  0
  3 49  1  0  0  0  0
  4 11  1  0  0  0  0
  4 14  1  0  0  0  0
  4 37  1  0  0  0  0
  5  6  1  0  0  0  0
  5  7  1  0  0  0  0
  5 24  1  0  0  0  0
  5 25  1  0  0  0  0
  6  8  1  0  0  0  0
  6 26  1  0  0  0  0
  6 27  1  0  0  0  0
  7  9  1  0  0  0  0
  7 28  1  0  0  0  0
  7 29  1  0  0  0  0
  8 10  1  0  0  0  0
  8 30  1  0  0  0  0
  8 31  1  0  0  0  0
  9 11  1  0  0  0  0
  9 32  1  0  0  0  0
  9 33  1  0  0  0  0
 10 13  2  0  0  0  0
 10 34  1  0  0  0  0
 12 13  1  0  0  0  0
 12 16  1  0  0  0  0
 12 17  1  0  0  0  0
 12 35  1  0  0  0  0
 13 36  1  0  0  0  0
 14 15  1  0  0  0  0
 14 38  1  0  0  0  0
 14 39  1  0  0  0  0
 15 18  2  0  0  0  0
 15 19  1  0  0  0  0
 16 40  1  0  0  0  0
 16 41  1  0  0  0  0
 16 42  1  0  0  0  0
 17 43  1  0  0  0  0
 17 44  1  0  0  0  0
 17 45  1  0  0  0  0
 18 20  1  0  0  0  0
 18 46  1  0  0  0  0
 19 21  2  0  0  0  0
 19 47  1  0  0  0  0
 20 22  2  0  0  0  0
 21 22  1  0  0  0  0
 21 48  1  0  0  0  0
 23 50  1  0  0  0  0
 23 51  1  0  0  0  0
 23 52  1  0  0  0  0
M  END
> <PUBCHEM_COMPOUND_CID>
6442566

> <PUBCHEM_CONFORMER_RMSD>
1

> <PUBCHEM_CONFORMER_DIVERSEORDER>
3
37
65
250
6
119
152
60
110
225
113
238
73
133
13
67
210
240
170
120
97
105
150
20
202
220
205
30
228
10
239
235
182
230
141
201
39
100
157
32
43
226
159
94
106
40
38
165
199
102
101
98
8
222
209
22
213
243
166
248
21
203
161
47
153
128
125
79
33
174
62
242
36
89
49
216
109
129
66
168
31
51
181
25
92
17
178
29
123
215
12
149
48
140
88
191
5
76
115
108
187
206
251
57
99
96
80
63
200
171
28
139
50
156
59
23
58
42
131
121
247
154
122
4
172
176
132
237
183
204
72
83
241
234
107
138
162
143
233
93
169
35
64
197
82
87
196
164
151
158
75
85
111
189
179
11
155
146
126
118
193
130
173
224
34
27
81
231
53
195
52
84
244
219
69
142
74
127
45
148
223
163
214
103
246
175
137
207
112
180
227
194
177
61
71
188
9
145
117
86
211
44
218
90
55
245
24
185
26
54
114
1
249
167
190
136
192
144
19
198
15
7
217
46
104
14
16
2
147
229
56
186
160
236
134
18
221
68
41
208
124
135
232
78
77
70
212
116
95
184
91

> <PUBCHEM_MMFF94_PARTIAL_CHARGES>
25
1 -0.57
10 -0.29
11 0.57
12 0.14
13 -0.29
14 0.44
15 -0.14
18 -0.15
19 -0.15
2 -0.36
20 0.08
21 -0.15
22 0.08
23 0.28
3 -0.53
34 0.15
36 0.15
37 0.37
4 -0.73
46 0.15
47 0.15
48 0.15
49 0.45
8 0.14
9 0.06

> <PUBCHEM_EFFECTIVE_ROTOR_COUNT>
11

> <PUBCHEM_PHARMACOPHORE_FEATURES>
8
1 1 acceptor
1 2 acceptor
1 3 donor
1 4 donor
3 12 16 17 hydrophobe
3 5 7 9 hydrophobe
3 6 8 10 hydrophobe
6 15 18 19 20 21 22 rings

> <PUBCHEM_HEAVY_ATOM_COUNT>
23

> <PUBCHEM_ATOM_DEF_STEREO_COUNT>
0

> <PUBCHEM_ATOM_UDEF_STEREO_COUNT>
0

> <PUBCHEM_BOND_DEF_STEREO_COUNT>
1

> <PUBCHEM_BOND_UDEF_STEREO_COUNT>
0

> <PUBCHEM_ISOTOPIC_ATOM_COUNT>
0

> <PUBCHEM_COMPONENT_COUNT>
1

> <PUBCHEM_CACTVS_TAUTO_COUNT>
6

> <PUBCHEM_CONFORMER_ID>
00624E4600000003

> <PUBCHEM_MMFF94_ENERGY>
39.1153

> <PUBCHEM_FEATURE_SELFOVERLAP>
40.596

> <PUBCHEM_SHAPE_FINGERPRINT>
10165383 225 17619679985714570967
10498660 4 16689661550015878790
12100795 323 18047485692475448013
12104220 1 16389840165645808904
12156800 1 16403868627986592479
128993 33 17834710409411915035
13402501 40 18042420031963410071
13773456 73 16226323708840203709
13965767 371 17762071229594326993
14114207 22 16666504357712990483
17093844 170 17971477295028301548
17921350 177 17676212376694649909
17974551 9 17458610250865670017
17977149 70 17256291482739727732
20567600 299 18126002663891749723
238 59 18272658934987544247
238918 7 18118938344205713657
3493558 16 17692481918865482814
35225 105 17339831285306334484
3524813 1 17975452197298785095
54672768 99 18187947052893176789

> <PUBCHEM_SHAPE_MULTIPOLES>
450.74
6.92
5.13
2.47
7.69
2.49
0.63
-4.53
0.62
-0.81
-0.18
-0.9
-0.2
2.8

> <PUBCHEM_SHAPE_SELFOVERLAP>
895.689

> <PUBCHEM_SHAPE_VOLUME>
268.1

> <PUBCHEM_COORDINATE_TYPE>
2
5
10

$$$$
