6433206
  -OEChem-07222420053D

 19 18  0     1  0  0  0  0  0999 V2000
    3.0154   -0.2129   -0.2600 S   0  0  1  0  0  0  0  0  0  0  0  0
   -4.1391   -1.5780   -0.1330 S   0  0  0  0  0  0  0  0  0  0  0  0
    2.4207   -1.0401   -1.3610 O   0  0  0  0  0  0  0  0  0  0  0  0
   -1.8482   -0.1132    0.3788 N   0  0  0  0  0  0  0  0  0  0  0  0
   -0.5013    1.9164    0.1537 C   0  0  0  0  0  0  0  0  0  0  0  0
   -1.8137    1.2288   -0.2077 C   0  0  0  0  0  0  0  0  0  0  0  0
    0.6958    1.1521   -0.3396 C   0  0  0  0  0  0  0  0  0  0  0  0
    1.6513    0.6742    0.4696 C   0  0  0  0  0  0  0  0  0  0  0  0
    3.3442   -1.3022    1.1444 C   0  0  0  0  0  0  0  0  0  0  0  0
   -2.8251   -0.7250    0.1548 C   0  0  0  0  0  0  0  0  0  0  0  0
   -0.4500    2.0509    1.2414 H   0  0  0  0  0  0  0  0  0  0  0  0
   -0.4839    2.9181   -0.2912 H   0  0  0  0  0  0  0  0  0  0  0  0
   -1.9110    1.1754   -1.3011 H   0  0  0  0  0  0  0  0  0  0  0  0
   -2.6456    1.8374    0.1716 H   0  0  0  0  0  0  0  0  0  0  0  0
    0.7579    1.0131   -1.4165 H   0  0  0  0  0  0  0  0  0  0  0  0
    1.5839    0.8359    1.5408 H   0  0  0  0  0  0  0  0  0  0  0  0
    3.6731   -0.7084    2.0007 H   0  0  0  0  0  0  0  0  0  0  0  0
    4.1380   -1.9993    0.8648 H   0  0  0  0  0  0  0  0  0  0  0  0
    2.4437   -1.8658    1.4015 H   0  0  0  0  0  0  0  0  0  0  0  0
  1  3  2  0  0  0  0
  1  8  1  0  0  0  0
  1  9  1  0  0  0  0
  2 10  2  0  0  0  0
  4  6  1  0  0  0  0
  4 10  2  0  0  0  0
  5  6  1  0  0  0  0
  5  7  1  0  0  0  0
  5 11  1  0  0  0  0
  5 12  1  0  0  0  0
  6 13  1  0  0  0  0
  6 14  1  0  0  0  0
  7  8  2  0  0  0  0
  7 15  1  0  0  0  0
  8 16  1  0  0  0  0
  9 17  1  0  0  0  0
  9 18  1  0  0  0  0
  9 19  1  0  0  0  0
M  END
> <PUBCHEM_COMPOUND_CID>
6433206

> <PUBCHEM_CONFORMER_RMSD>
0.6

> <PUBCHEM_CONFORMER_DIVERSEORDER>
3
42
105
21
54
141
15
135
6
149
22
142
117
45
67
47
106
139
14
31
123
112
52
76
38
129
92
143
4
84
124
74
94
122
46
87
88
48
114
108
93
37
19
55
63
77
125
35
140
99
2
103
96
68
49
102
85
134
71
28
131
51
53
132
100
62
32
59
20
82
121
7
111
146
57
127
78
56
90
26
98
136
130
109
145
86
138
17
65
147
73
126
137
24
133
81
72
23
119
148
34
110
70
101
116
113
9
107
30
66
104
11
43
97
144
61
89
40
80
118
13
120
58
79
95
25
1
27
50
83
128
12
5
60
36
33
10
16
29
91
115
44
8
64
41
18
69
75
39

> <PUBCHEM_MMFF94_PARTIAL_CHARGES>
12
1 0.25
10 0.57
15 0.15
16 0.15
2 -0.27
3 -0.5
4 -0.55
5 0.14
6 0.25
7 -0.29
8 -0.09
9 0.19

> <PUBCHEM_EFFECTIVE_ROTOR_COUNT>
4

> <PUBCHEM_PHARMACOPHORE_FEATURES>
3
1 2 acceptor
1 3 acceptor
1 4 acceptor

> <PUBCHEM_HEAVY_ATOM_COUNT>
10

> <PUBCHEM_ATOM_DEF_STEREO_COUNT>
0

> <PUBCHEM_ATOM_UDEF_STEREO_COUNT>
1

> <PUBCHEM_BOND_DEF_STEREO_COUNT>
1

> <PUBCHEM_BOND_UDEF_STEREO_COUNT>
0

> <PUBCHEM_ISOTOPIC_ATOM_COUNT>
0

> <PUBCHEM_COMPONENT_COUNT>
1

> <PUBCHEM_CACTVS_TAUTO_COUNT>
1

> <PUBCHEM_CONFORMER_ID>
006229B600000003

> <PUBCHEM_MMFF94_ENERGY>
7.7111

> <PUBCHEM_FEATURE_SELFOVERLAP>
15.228

> <PUBCHEM_SHAPE_FINGERPRINT>
10149128 111 9799694813413170531
12932764 1 17896050836460905884
14252887 29 18201165445937912890
14390081 3 8286199427007308701
177051 138 18272936067688852575
18186145 218 13334740106747514525
18342897 69 18410292467378236953
19107657 9 9655578521567714403
20645477 70 18194960975443523919
20653085 51 10015580653199430596
20671657 53 18113897191040888717
20711978 1 18408887368743175221
20711985 344 17967805008228756013
20871998 22 18343590641576055565
22485316 2 18408318899872563225
3248919 1 18058445401021928308
449060 23 18410864243352112881
8199 26 10375575040973593938
94968 8 18336550528768921563

> <PUBCHEM_SHAPE_MULTIPOLES>
202.64
7.11
1.93
0.95
3.01
0.32
0.1
-5.28
-0.16
0.47
-0.1
-0.75
-0.3
-0.22

> <PUBCHEM_SHAPE_SELFOVERLAP>
355.045

> <PUBCHEM_SHAPE_VOLUME>
134

> <PUBCHEM_COORDINATE_TYPE>
2
5
10

$$$$
