11294368
  -OEChem-07232408183D

 72 77  0     1  0  0  0  0  0999 V2000
    3.5155    1.8784   -1.5323 O   0  0  0  0  0  0  0  0  0  0  0  0
    4.3797   -0.5331   -1.7723 O   0  0  0  0  0  0  0  0  0  0  0  0
   -4.0210    2.3998   -0.7434 O   0  0  0  0  0  0  0  0  0  0  0  0
    2.8146   -3.0815    0.3541 O   0  0  0  0  0  0  0  0  0  0  0  0
   -3.4999   -0.2806   -1.1249 O   0  0  0  0  0  0  0  0  0  0  0  0
   -3.7621   -2.0995   -2.4306 O   0  0  0  0  0  0  0  0  0  0  0  0
    1.9466    1.3302    0.3168 C   0  0  1  0  0  0  0  0  0  0  0  0
    0.6229    1.8037   -0.2857 C   0  0  1  0  0  0  0  0  0  0  0  0
    2.0805   -0.2166    0.0742 C   0  0  1  0  0  0  0  0  0  0  0  0
   -0.5995    1.1434    0.3912 C   0  0  1  0  0  0  0  0  0  0  0  0
    3.1156    2.1178   -0.1890 C   0  0  1  0  0  0  0  0  0  0  0  0
    4.4230    1.4383   -0.4936 C   0  0  1  0  0  0  0  0  0  0  0  0
    3.5046   -0.7245    0.5308 C   0  0  1  0  0  0  0  0  0  0  0  0
    4.5746   -0.0641   -0.4183 C   0  0  1  0  0  0  0  0  0  0  0  0
   -1.7263    1.8476   -0.4033 C   0  0  2  0  0  0  0  0  0  0  0  0
    0.8461   -0.9411    0.6814 C   0  0  0  0  0  0  0  0  0  0  0  0
   -0.4976   -0.3718    0.1753 C   0  0  0  0  0  0  0  0  0  0  0  0
    0.2761    3.2893   -0.2683 C   0  0  0  0  0  0  0  0  0  0  0  0
   -1.2486    3.3173   -0.4871 C   0  0  0  0  0  0  0  0  0  0  0  0
   -0.7280    1.4356    1.9087 C   0  0  0  0  0  0  0  0  0  0  0  0
   -3.1383    1.7143    0.1484 C   0  0  2  0  0  0  0  0  0  0  0  0
    6.0105   -0.4524   -0.0119 C   0  0  0  0  0  0  0  0  0  0  0  0
    3.7518   -0.3894    2.0241 C   0  0  0  0  0  0  0  0  0  0  0  0
    3.7213   -2.2546    0.3947 C   0  0  0  0  0  0  0  0  0  0  0  0
   -3.5583    0.2526    0.2097 C   0  0  1  0  0  0  0  0  0  0  0  0
    6.1525   -1.9270    0.2258 C   0  0  0  0  0  0  0  0  0  0  0  0
    5.1229   -2.7664    0.3799 C   0  0  0  0  0  0  0  0  0  0  0  0
   -3.2459    2.3659    1.5284 C   0  0  0  0  0  0  0  0  0  0  0  0
   -4.9658    0.0998    0.7582 C   0  0  0  0  0  0  0  0  0  0  0  0
   -5.3881   -1.3388    0.6395 C   0  0  0  0  0  0  0  0  0  0  0  0
   -4.0056   -1.5157   -1.3788 C   0  0  0  0  0  0  0  0  0  0  0  0
   -4.8914   -2.1202   -0.3406 C   0  0  0  0  0  0  0  0  0  0  0  0
   -6.3885   -1.7782    1.6722 C   0  0  0  0  0  0  0  0  0  0  0  0
   -5.1937   -3.5786   -0.5332 C   0  0  0  0  0  0  0  0  0  0  0  0
    1.9309    1.5149    1.3950 H   0  0  0  0  0  0  0  0  0  0  0  0
    0.6399    1.5139   -1.3499 H   0  0  0  0  0  0  0  0  0  0  0  0
    2.0106   -0.3984   -1.0085 H   0  0  0  0  0  0  0  0  0  0  0  0
    3.1432    3.1358    0.1771 H   0  0  0  0  0  0  0  0  0  0  0  0
    5.3420    1.9975   -0.3839 H   0  0  0  0  0  0  0  0  0  0  0  0
   -1.7203    1.4723   -1.4385 H   0  0  0  0  0  0  0  0  0  0  0  0
    0.8775   -0.8991    1.7747 H   0  0  0  0  0  0  0  0  0  0  0  0
    0.8458   -1.9990    0.4110 H   0  0  0  0  0  0  0  0  0  0  0  0
   -0.5990   -0.6100   -0.8912 H   0  0  0  0  0  0  0  0  0  0  0  0
   -1.2473   -0.9547    0.7032 H   0  0  0  0  0  0  0  0  0  0  0  0
    0.8035    3.8453   -1.0500 H   0  0  0  0  0  0  0  0  0  0  0  0
    0.5304    3.7458    0.6948 H   0  0  0  0  0  0  0  0  0  0  0  0
   -1.7028    4.0299    0.2012 H   0  0  0  0  0  0  0  0  0  0  0  0
   -1.4653    3.7032   -1.4916 H   0  0  0  0  0  0  0  0  0  0  0  0
    0.1981    1.1667    2.4285 H   0  0  0  0  0  0  0  0  0  0  0  0
   -0.8594    2.4881    2.1616 H   0  0  0  0  0  0  0  0  0  0  0  0
   -1.4577    0.7853    2.3939 H   0  0  0  0  0  0  0  0  0  0  0  0
    6.3265    0.0839    0.8909 H   0  0  0  0  0  0  0  0  0  0  0  0
    6.7099   -0.1705   -0.8095 H   0  0  0  0  0  0  0  0  0  0  0  0
    4.6590   -0.8607    2.4170 H   0  0  0  0  0  0  0  0  0  0  0  0
    3.8582    0.6849    2.1996 H   0  0  0  0  0  0  0  0  0  0  0  0
    2.9324   -0.7554    2.6513 H   0  0  0  0  0  0  0  0  0  0  0  0
    5.0516   -0.1129   -2.3361 H   0  0  0  0  0  0  0  0  0  0  0  0
   -2.9289   -0.3246    0.8774 H   0  0  0  0  0  0  0  0  0  0  0  0
    7.1620   -2.3280    0.2522 H   0  0  0  0  0  0  0  0  0  0  0  0
    5.2763   -3.8310    0.5127 H   0  0  0  0  0  0  0  0  0  0  0  0
   -2.6826    3.2835    1.6897 H   0  0  0  0  0  0  0  0  0  0  0  0
   -4.2824    2.7208    1.6458 H   0  0  0  0  0  0  0  0  0  0  0  0
   -3.1264    1.6931    2.3780 H   0  0  0  0  0  0  0  0  0  0  0  0
   -3.8426    3.3533   -0.6821 H   0  0  0  0  0  0  0  0  0  0  0  0
   -5.6926    0.7100    0.2086 H   0  0  0  0  0  0  0  0  0  0  0  0
   -5.0008    0.4032    1.8104 H   0  0  0  0  0  0  0  0  0  0  0  0
   -7.2087   -1.0540    1.7307 H   0  0  0  0  0  0  0  0  0  0  0  0
   -5.9126   -1.8391    2.6562 H   0  0  0  0  0  0  0  0  0  0  0  0
   -6.8446   -2.7462    1.4533 H   0  0  0  0  0  0  0  0  0  0  0  0
   -5.9219   -3.7124   -1.3395 H   0  0  0  0  0  0  0  0  0  0  0  0
   -5.5836   -4.0573    0.3684 H   0  0  0  0  0  0  0  0  0  0  0  0
   -4.2824   -4.1271   -0.7971 H   0  0  0  0  0  0  0  0  0  0  0  0
  1 11  1  0  0  0  0
  1 12  1  0  0  0  0
  2 14  1  0  0  0  0
  2 57  1  0  0  0  0
  3 21  1  0  0  0  0
  3 64  1  0  0  0  0
  4 24  2  0  0  0  0
  5 25  1  0  0  0  0
  5 31  1  0  0  0  0
  6 31  2  0  0  0  0
  7  8  1  0  0  0  0
  7  9  1  0  0  0  0
  7 11  1  0  0  0  0
  7 35  1  0  0  0  0
  8 10  1  0  0  0  0
  8 18  1  0  0  0  0
  8 36  1  0  0  0  0
  9 13  1  0  0  0  0
  9 16  1  0  0  0  0
  9 37  1  0  0  0  0
 10 15  1  0  0  0  0
 10 17  1  0  0  0  0
 10 20  1  0  0  0  0
 11 12  1  0  0  0  0
 11 38  1  0  0  0  0
 12 14  1  0  0  0  0
 12 39  1  0  0  0  0
 13 14  1  0  0  0  0
 13 23  1  0  0  0  0
 13 24  1  0  0  0  0
 14 22  1  0  0  0  0
 15 19  1  0  0  0  0
 15 21  1  0  0  0  0
 15 40  1  0  0  0  0
 16 17  1  0  0  0  0
 16 41  1  0  0  0  0
 16 42  1  0  0  0  0
 17 43  1  0  0  0  0
 17 44  1  0  0  0  0
 18 19  1  0  0  0  0
 18 45  1  0  0  0  0
 18 46  1  0  0  0  0
 19 47  1  0  0  0  0
 19 48  1  0  0  0  0
 20 49  1  0  0  0  0
 20 50  1  0  0  0  0
 20 51  1  0  0  0  0
 21 25  1  0  0  0  0
 21 28  1  0  0  0  0
 22 26  1  0  0  0  0
 22 52  1  0  0  0  0
 22 53  1  0  0  0  0
 23 54  1  0  0  0  0
 23 55  1  0  0  0  0
 23 56  1  0  0  0  0
 24 27  1  0  0  0  0
 25 29  1  0  0  0  0
 25 58  1  0  0  0  0
 26 27  2  0  0  0  0
 26 59  1  0  0  0  0
 27 60  1  0  0  0  0
 28 61  1  0  0  0  0
 28 62  1  0  0  0  0
 28 63  1  0  0  0  0
 29 30  1  0  0  0  0
 29 65  1  0  0  0  0
 29 66  1  0  0  0  0
 30 32  2  0  0  0  0
 30 33  1  0  0  0  0
 31 32  1  0  0  0  0
 32 34  1  0  0  0  0
 33 67  1  0  0  0  0
 33 68  1  0  0  0  0
 33 69  1  0  0  0  0
 34 70  1  0  0  0  0
 34 71  1  0  0  0  0
 34 72  1  0  0  0  0
M  END
> <PUBCHEM_COMPOUND_CID>
11294368

> <PUBCHEM_CONFORMER_RMSD>
0.8

> <PUBCHEM_CONFORMER_DIVERSEORDER>
1
2

> <PUBCHEM_MMFF94_PARTIAL_CHARGES>
29
1 -0.3
11 -0.05
12 -0.05
13 0.06
14 0.38
2 -0.68
21 0.28
22 0.14
24 0.49
25 0.28
26 -0.29
27 -0.14
29 0.14
3 -0.68
30 -0.28
31 0.71
32 -0.12
33 0.14
34 0.14
38 0.1
39 0.1
4 -0.57
5 -0.43
57 0.4
59 0.15
6 -0.57
60 0.15
64 0.4
7 0.09

> <PUBCHEM_EFFECTIVE_ROTOR_COUNT>
4

> <PUBCHEM_PHARMACOPHORE_FEATURES>
12
1 1 acceptor
1 2 acceptor
1 2 donor
1 3 acceptor
1 3 donor
1 4 acceptor
1 6 acceptor
5 8 10 15 18 19 rings
6 13 14 22 24 26 27 rings
6 5 25 29 30 31 32 rings
6 7 8 9 10 16 17 rings
7 1 7 9 11 12 13 14 rings

> <PUBCHEM_HEAVY_ATOM_COUNT>
34

> <PUBCHEM_ATOM_DEF_STEREO_COUNT>
11

> <PUBCHEM_ATOM_UDEF_STEREO_COUNT>
0

> <PUBCHEM_BOND_DEF_STEREO_COUNT>
0

> <PUBCHEM_BOND_UDEF_STEREO_COUNT>
0

> <PUBCHEM_ISOTOPIC_ATOM_COUNT>
0

> <PUBCHEM_COMPONENT_COUNT>
1

> <PUBCHEM_CACTVS_TAUTO_COUNT>
3

> <PUBCHEM_CONFORMER_ID>
00AC56A000000001

> <PUBCHEM_MMFF94_ENERGY>
145.0562

> <PUBCHEM_FEATURE_SELFOVERLAP>
60.989

> <PUBCHEM_SHAPE_FINGERPRINT>
10074138 170 16915398597401299281
10462674 125 15403804592595298887
10622 236 18337380569838105794
10928967 22 18201714111025702711
11135609 187 18044943612596673493
11315621 136 18333169475201064502
11607047 403 17194858482487618345
117089 54 18120100743510548875
11763715 3 18262257559083986084
11796584 16 18200878370445414412
11963148 33 18118118066521723722
12166972 35 17531252789389705916
12422481 6 17632867416656998223
13009979 54 18343306941843702937
13690498 29 18186519887100958269
13782708 43 17988638542099515942
14347332 77 18410293618735303725
14848178 96 9007063469518844599
14950920 106 16845567651874684539
15001296 14 18268711778042723607
15064986 96 18058470785001555039
15082195 135 17532671211641554492
15250474 111 18411698768477962903
15320467 1 13510099524103462203
15361156 5 17896901875614221924
15537594 2 18270405009302132503
15799311 1 18337687389643729027
16110190 28 18342747295458395843
17349148 13 18113056034501695648
17492 89 18335420102262123610
17909252 39 18268709591883076403
19246450 95 18198362701828116243
19319366 153 17188970654315101133
20028762 73 18411136922785278618
20775438 99 17975402835097357490
20775530 9 18411407411013431147
208703 8 18335137591961145195
21267235 1 18408893931700746650
22149856 69 18336844060251790841
22393880 68 17894902988933375561
22950370 63 18411420648207930757
23522609 53 18122942873388010689
23559900 14 18264480703091682072
24893989 43 17266673101989891319
249057 3 18192427481304250077
2838139 119 8213877963490884379
3004659 81 18040713666825404280
314194 84 18337114587287888755
329604 57 18333454261191456419
338550 245 18410573964109631878
3737641 26 18409731798390118255
4015057 19 17676218986913387232
439807 62 18333735715025698571
44062 13 18337105662203838621
44880168 125 17203336593316712591
46194498 28 17023746878304513973
463206 1 18338238291986765230
5104073 3 18201720635001800304
6431902 208 18408319986378307571
6700243 42 17985297121435079556
7970288 3 18266738176741969831

> <PUBCHEM_SHAPE_MULTIPOLES>
664.49
14.81
3.96
1.47
1.16
0.09
0
12.1
0.36
1.76
-0.47
0.86
0.21
-1.47

> <PUBCHEM_SHAPE_SELFOVERLAP>
1452.413

> <PUBCHEM_SHAPE_VOLUME>
355.1

> <PUBCHEM_COORDINATE_TYPE>
2
5
10

$$$$
